
     RDKit          3D

  0  0  0  0  0  0  0  0  0  0999 V3000
M  V30 BEGIN CTAB
M  V30 COUNTS 24 24 0 0 0
M  V30 BEGIN ATOM
M  V30 1 Br 3.4342 0.0810 1.4299 0
M  V30 2 C 2.9277 1.1220 -0.0736 0
M  V30 3 N 1.7829 0.9683 -0.5901 0
M  V30 4 C 0.8812 0.0185 -0.0441 0
M  V30 5 C 0.2625 -0.8110 -1.1476 0
M  V30 6 C -0.5029 -1.9485 -0.5152 0
M  V30 7 C -1.5788 -1.3592 0.3721 0
M  V30 8 C -0.9793 -0.4587 1.4467 0
M  V30 9 C -0.2880 0.6789 0.6854 0
M  V30 10 N -1.2329 1.0998 -0.3199 0
M  V30 11 C -1.2172 2.2609 -0.8299 0
M  V30 12 Br 0.0939 3.5081 -0.2608 0
M  V30 13 H 3.6310 1.8354 -0.4679 0
M  V30 14 H 1.4097 -0.6347 0.7074 0
M  V30 15 H 1.0523 -1.1298 -1.8289 0
M  V30 16 H -0.4619 -0.1691 -1.6672 0
M  V30 17 H 0.1682 -2.6287 0.0551 0
M  V30 18 H -1.0310 -2.4742 -1.3390 0
M  V30 19 H -2.2200 -0.7232 -0.2747 0
M  V30 20 H -2.1470 -2.1849 0.8369 0
M  V30 21 H -0.2524 -1.0156 2.0457 0
M  V30 22 H -1.8143 -0.0336 2.0060 0
M  V30 23 H 0.0275 1.4828 1.3466 0
M  V30 24 H -1.9454 2.5154 -1.5730 0
M  V30 END ATOM
M  V30 BEGIN BOND
M  V30 1 1 1 2
M  V30 2 2 2 3
M  V30 3 1 3 4
M  V30 4 1 4 5
M  V30 5 1 5 6
M  V30 6 1 6 7
M  V30 7 1 7 8
M  V30 8 1 8 9
M  V30 9 1 9 10
M  V30 10 2 10 11
M  V30 11 1 11 12
M  V30 12 1 9 4
M  V30 13 1 2 13
M  V30 14 1 4 14
M  V30 15 1 5 15
M  V30 16 1 5 16
M  V30 17 1 6 17
M  V30 18 1 6 18
M  V30 19 1 7 19
M  V30 20 1 7 20
M  V30 21 1 8 21
M  V30 22 1 8 22
M  V30 23 1 9 23
M  V30 24 1 11 24
M  V30 END BOND
M  V30 END CTAB
M  END

$$$$
