
     RDKit          3D

  0  0  0  0  0  0  0  0  0  0999 V3000
M  V30 BEGIN CTAB
M  V30 COUNTS 22 23 0 0 0
M  V30 BEGIN ATOM
M  V30 1 C -1.5365 -0.9605 0.4564 0
M  V30 2 C -2.9110 -0.8194 0.4320 0
M  V30 3 C -3.5222 0.3116 -0.0691 0
M  V30 4 C -2.7024 1.3107 -0.5516 0
M  V30 5 C -1.3192 1.1696 -0.5275 0
M  V30 6 C -0.7147 0.0361 -0.0251 0
M  V30 7 C 0.7425 -0.1212 0.0041 0
M  V30 8 C 1.3761 -1.3282 -0.1239 0
M  V30 9 C 2.7678 -1.3804 -0.0839 0
M  V30 10 C 3.5290 -0.2513 0.0810 0
M  V30 11 C 2.8495 0.9353 0.2049 0
M  V30 12 C 1.4866 1.0158 0.1694 0
M  V30 13 Br 5.4178 -0.3424 0.1329 0
M  V30 14 Br -5.4274 0.4721 -0.0872 0
M  V30 15 H -1.0577 -1.8600 0.8550 0
M  V30 16 H -3.5567 -1.5997 0.8087 0
M  V30 17 H -3.1774 2.1934 -0.9423 0
M  V30 18 H -0.6764 1.9461 -0.9024 0
M  V30 19 H 0.7890 -2.2254 -0.2550 0
M  V30 20 H 3.2348 -2.3604 -0.1890 0
M  V30 21 H 3.4033 1.8705 0.3387 0
M  V30 22 H 1.0053 1.9880 0.2737 0
M  V30 END ATOM
M  V30 BEGIN BOND
M  V30 1 2 1 2
M  V30 2 1 2 3
M  V30 3 2 3 4
M  V30 4 1 4 5
M  V30 5 2 5 6
M  V30 6 1 6 7
M  V30 7 2 7 8
M  V30 8 1 8 9
M  V30 9 2 9 10
M  V30 10 1 10 11
M  V30 11 2 11 12
M  V30 12 1 10 13
M  V30 13 1 3 14
M  V30 14 1 6 1
M  V30 15 1 12 7
M  V30 16 1 1 15
M  V30 17 1 2 16
M  V30 18 1 4 17
M  V30 19 1 5 18
M  V30 20 1 8 19
M  V30 21 1 9 20
M  V30 22 1 11 21
M  V30 23 1 12 22
M  V30 END BOND
M  V30 END CTAB
M  END

$$$$
