
     RDKit          3D

  0  0  0  0  0  0  0  0  0  0999 V3000
M  V30 BEGIN CTAB
M  V30 COUNTS 22 23 0 0 0
M  V30 BEGIN ATOM
M  V30 1 C 1.4254 -0.8596 0.9009 0
M  V30 2 C 2.8181 -0.9775 0.8539 0
M  V30 3 C 3.5354 -0.2965 -0.1255 0
M  V30 4 C 2.8742 0.5001 -1.0559 0
M  V30 5 C 1.4816 0.6158 -1.0041 0
M  V30 6 C 0.7330 -0.0615 -0.0260 0
M  V30 7 C -0.7330 0.0615 0.0260 0
M  V30 8 C -1.3515 1.3221 0.0892 0
M  V30 9 C -2.7439 1.4415 0.1393 0
M  V30 10 C -3.5354 0.2965 0.1255 0
M  V30 11 C -2.9484 -0.9640 0.0627 0
M  V30 12 C -1.5555 -1.0783 0.0140 0
M  V30 13 Br -5.4175 0.4544 0.1922 0
M  V30 14 Br 5.4175 -0.4544 -0.1922 0
M  V30 15 H 0.8804 -1.3896 1.6801 0
M  V30 16 H 3.3280 -1.5987 1.5854 0
M  V30 17 H 3.4277 1.0320 -1.8251 0
M  V30 18 H 0.9789 1.2336 -1.7461 0
M  V30 19 H -0.7466 2.2268 0.1124 0
M  V30 20 H -3.1954 2.4286 0.1913 0
M  V30 21 H -3.5603 -1.8619 0.0484 0
M  V30 22 H -1.1127 -2.0709 -0.0464 0
M  V30 END ATOM
M  V30 BEGIN BOND
M  V30 1 2 1 2
M  V30 2 1 2 3
M  V30 3 2 3 4
M  V30 4 1 4 5
M  V30 5 2 5 6
M  V30 6 1 6 7
M  V30 7 2 7 8
M  V30 8 1 8 9
M  V30 9 2 9 10
M  V30 10 1 10 11
M  V30 11 2 11 12
M  V30 12 1 10 13
M  V30 13 1 3 14
M  V30 14 1 6 1
M  V30 15 1 12 7
M  V30 16 1 1 15
M  V30 17 1 2 16
M  V30 18 1 4 17
M  V30 19 1 5 18
M  V30 20 1 8 19
M  V30 21 1 9 20
M  V30 22 1 11 21
M  V30 23 1 12 22
M  V30 END BOND
M  V30 END CTAB
M  END

$$$$
