
     RDKit          3D

  0  0  0  0  0  0  0  0  0  0999 V3000
M  V30 BEGIN CTAB
M  V30 COUNTS 12 12 0 0 0
M  V30 BEGIN ATOM
M  V30 1 C 0.7376 1.1693 -0.0159 0
M  V30 2 C -0.6429 1.2414 -0.0412 0
M  V30 3 C -1.3437 0.0543 -0.0243 0
M  V30 4 C -0.7534 -1.1821 0.0159 0
M  V30 5 C 0.6329 -1.2324 0.0408 0
M  V30 6 C 1.3832 -0.0561 0.0250 0
M  V30 7 Br 3.2982 -0.1252 0.0595 0
M  V30 8 Br -1.7690 -2.7926 0.0377 0
M  V30 9 Br -1.5269 2.9429 -0.0978 0
M  V30 10 H 1.2955 2.1061 -0.0291 0
M  V30 11 H -2.4379 0.0893 -0.0439 0
M  V30 12 H 1.1264 -2.2150 0.0732 0
M  V30 END ATOM
M  V30 BEGIN BOND
M  V30 1 2 1 2
M  V30 2 1 2 3
M  V30 3 2 3 4
M  V30 4 1 4 5
M  V30 5 2 5 6
M  V30 6 1 6 7
M  V30 7 1 4 8
M  V30 8 1 2 9
M  V30 9 1 6 1
M  V30 10 1 1 10
M  V30 11 1 3 11
M  V30 12 1 5 12
M  V30 END BOND
M  V30 END CTAB
M  END

$$$$
