
     RDKit          3D

  0  0  0  0  0  0  0  0  0  0999 V3000
M  V30 BEGIN CTAB
M  V30 COUNTS 12 12 0 0 0
M  V30 BEGIN ATOM
M  V30 1 C 0.2362 -1.3792 -0.0267 0
M  V30 2 C 1.3027 -0.4814 -0.0051 0
M  V30 3 C 1.0765 0.8941 0.0215 0
M  V30 4 C -0.2344 1.3686 0.0265 0
M  V30 5 C -1.3128 0.4851 0.0051 0
M  V30 6 C -1.0683 -0.8872 -0.0214 0
M  V30 7 Br -2.5227 -2.0952 -0.0504 0
M  V30 8 Br -0.5536 3.2320 0.0625 0
M  V30 9 Br 3.0763 -1.1369 -0.0121 0
M  V30 10 H 0.4197 -2.4502 -0.0474 0
M  V30 11 H 1.9125 1.5884 0.0382 0
M  V30 12 H -2.3322 0.8619 0.0091 0
M  V30 END ATOM
M  V30 BEGIN BOND
M  V30 1 2 1 2
M  V30 2 1 2 3
M  V30 3 2 3 4
M  V30 4 1 4 5
M  V30 5 2 5 6
M  V30 6 1 6 7
M  V30 7 1 4 8
M  V30 8 1 2 9
M  V30 9 1 6 1
M  V30 10 1 1 10
M  V30 11 1 3 11
M  V30 12 1 5 12
M  V30 END BOND
M  V30 END CTAB
M  END

$$$$
